Version 4
SHEET 1 880 680
WIRE 368 80 224 80
WIRE 224 112 224 80
WIRE 160 128 64 128
WIRE 368 128 368 80
WIRE 160 160 160 128
WIRE 224 224 224 208
FLAG 64 208 0
FLAG 224 224 0
FLAG 368 208 0
SYMBOL npn 160 112 R0
SYMATTR InstName Q1
SYMATTR Value 2N2222
SYMBOL voltage 368 112 R0
WINDOW 123 0 0 Left 2
WINDOW 39 0 0 Left 2
SYMATTR InstName V1
SYMATTR Value 28
SYMBOL current 64 208 R180
WINDOW 0 24 80 Left 2
WINDOW 3 24 0 Left 2
WINDOW 123 0 0 Left 2
WINDOW 39 0 0 Left 2
SYMATTR InstName I1
SYMATTR Value 1
TEXT 72 48 Left 2 !.dc V1 0 15 0.01 I1 0 14m 2m
TEXT -504 80 Left 2 ;Mitoitettiin kytkinkäytön kantavirta.\nOhjaus CPU 5V/0V\nKuorma Motor DC 28V/0,5A (L=0.6mH)\nKytkin 2N2222\n \nOminaiskäyrältä valittiin kantavirraksi\n10mA => Pc = Uce x Ic=380.670mV x 0,5 =190mW
