Version 4
SHEET 1 880 680
WIRE 176 144 64 144
WIRE 64 160 64 144
WIRE 352 160 240 160
WIRE 496 160 352 160
WIRE 176 176 144 176
WIRE 144 240 144 176
WIRE 352 240 352 160
WIRE 352 240 144 240
FLAG 64 240 0
FLAG -160 -48 0
FLAG -256 -48 0
FLAG 208 192 V+
FLAG 208 128 V-
FLAG -160 -128 V-
FLAG -256 -128 V+
SYMBOL Opamps\\LT1001 208 224 M180
SYMATTR InstName U1
SYMBOL voltage 64 144 R0
WINDOW 3 -63 135 Left 2
WINDOW 123 0 0 Left 2
WINDOW 39 0 0 Left 2
SYMATTR InstName V1
SYMATTR Value SINE(0 1 1k)
SYMBOL voltage -256 -144 R0
WINDOW 3 -13 57 Left 2
WINDOW 123 0 0 Left 2
WINDOW 39 0 0 Left 2
SYMATTR InstName V2
SYMATTR Value 15
SYMBOL voltage -160 -144 R0
WINDOW 3 -17 58 Left 2
WINDOW 123 0 0 Left 2
WINDOW 39 0 0 Left 2
SYMATTR InstName V3
SYMATTR Value -15
TEXT 42 102 Left 2 !.tran 6m
