Version 4
SHEET 1 1972 680
WIRE -464 176 -608 176
WIRE -464 208 -464 176
WIRE 96 208 48 208
WIRE 256 208 176 208
WIRE 528 224 480 224
WIRE 688 224 608 224
WIRE -608 288 -608 176
WIRE -464 320 -464 288
WIRE -304 320 -464 320
WIRE -80 320 -160 320
WIRE 48 320 48 208
WIRE 48 320 0 320
WIRE 96 320 48 320
WIRE -192 336 -240 336
WIRE -160 336 -160 320
WIRE -160 336 -192 336
WIRE 256 336 256 208
WIRE 256 336 160 336
WIRE 352 336 256 336
WIRE 480 336 480 224
WIRE 480 336 432 336
WIRE 528 336 480 336
WIRE -464 352 -464 320
WIRE -304 352 -352 352
WIRE 96 352 32 352
WIRE 688 352 688 224
WIRE 688 352 592 352
WIRE 784 352 688 352
WIRE 528 368 464 368
WIRE 32 400 32 352
WIRE -352 416 -352 352
WIRE -192 416 -192 336
WIRE -192 416 -352 416
WIRE 464 448 464 368
FLAG -608 368 0
FLAG -464 432 0
FLAG -768 48 0
FLAG -672 48 0
FLAG 32 480 0
FLAG 128 368 v-
FLAG -672 -32 v-
FLAG 128 304 v+
FLAG -768 -32 v+
FLAG -272 368 v+
FLAG -272 304 v-
FLAG 560 384 v-
FLAG 560 320 v+
FLAG 464 448 0
SYMBOL res -480 192 R0
SYMATTR InstName R1
SYMATTR Value 30k
SYMBOL res -480 336 R0
SYMATTR InstName NTC
SYMATTR Value {x}
SYMBOL voltage -608 272 R0
WINDOW 123 0 0 Left 2
WINDOW 39 0 0 Left 2
SYMATTR InstName V1
SYMATTR Value 15
SYMBOL Opamps\\LT1001 128 272 R0
SYMATTR InstName U1
SYMBOL voltage -768 -48 R0
WINDOW 123 0 0 Left 2
WINDOW 39 0 0 Left 2
SYMATTR InstName V2
SYMATTR Value 15
SYMBOL voltage -672 -48 R0
WINDOW 123 0 0 Left 2
WINDOW 39 0 0 Left 2
SYMATTR InstName V3
SYMATTR Value -15
SYMBOL voltage 32 384 R0
WINDOW 123 0 0 Left 2
WINDOW 39 0 0 Left 2
SYMATTR InstName V4
SYMATTR Value 2.175
SYMBOL res 16 304 R90
WINDOW 0 0 56 VBottom 2
WINDOW 3 32 56 VTop 2
SYMATTR InstName R2
SYMATTR Value 10k
SYMBOL res 192 192 R90
WINDOW 0 0 56 VBottom 2
WINDOW 3 32 56 VTop 2
SYMATTR InstName R3
SYMATTR Value 10k
SYMBOL Opamps\\LT1001 -272 400 M180
SYMATTR InstName U2
SYMBOL Opamps\\LT1001 560 288 R0
SYMATTR InstName U3
SYMBOL res 448 320 R90
WINDOW 0 0 56 VBottom 2
WINDOW 3 32 56 VTop 2
SYMATTR InstName R4
SYMATTR Value 30.9k
SYMBOL res 624 208 R90
WINDOW 0 0 56 VBottom 2
WINDOW 3 32 56 VTop 2
SYMATTR InstName R5
SYMATTR Value 50K
TEXT -632 128 Left 2 !.step param x list 29490 28160 26890 25690 24540 23460 22430 21440 20510 19620 18780 17980 17210 16480 15790 15130 14500 13900 13330 12780 12260
TEXT -352 224 Left 2 !.op
TEXT -544 -56 Left 2 ;Mitoitettiin NTC lämpömittari\nalueelle 0C...20C\nvalittiin NTC Us Sensorilta
TEXT -120 16 Left 2 ;Tässä seuraavat arvot\n20C = 4.35V = 12260 ohmia\n0C = 7.44V = 29490 ohmia
TEXT 272 176 Left 2 ;Tasonsiirtimen jälkeen\n20C = 0V\n0C = -3.09V
TEXT 712 304 Left 2 ;AD-muuntimelle: 0 - 5V
TEXT -392 448 Left 2 ;Jänniteseuraaja estää \nTasonsiirrintä kuormittamasta\njännitteenjakoa
TEXT -8 520 Left 2 ;Uref = (4.35V-0V)/2 = 2.175V\nS. 83 Tasonsiirto
