Version 4
SHEET 1 884 680
WIRE -384 224 -448 224
WIRE -256 224 -304 224
WIRE -144 224 -256 224
WIRE 256 240 192 240
WIRE 368 240 320 240
WIRE 448 240 368 240
WIRE -448 272 -448 224
WIRE -256 272 -256 224
WIRE 192 288 192 240
WIRE 368 288 368 240
WIRE -448 400 -448 352
WIRE -256 400 -256 336
FLAG -448 400 0
FLAG -256 400 0
FLAG 192 368 0
FLAG 368 368 0
SYMBOL res -288 208 R90
WINDOW 0 0 56 VBottom 2
WINDOW 3 32 56 VTop 2
SYMATTR InstName R1
SYMATTR Value 1k
SYMBOL cap -272 272 R0
SYMATTR InstName C1
SYMATTR Value 16n
SYMBOL voltage -448 256 R0
WINDOW 123 24 124 Left 2
WINDOW 39 0 0 Left 2
SYMATTR InstName V1
SYMATTR Value ""
SYMATTR Value2 AC 1
SYMBOL voltage 192 272 R0
WINDOW 123 24 124 Left 2
WINDOW 39 0 0 Left 2
SYMATTR InstName V2
SYMATTR Value ""
SYMATTR Value2 AC 1
SYMBOL cap 320 224 R90
WINDOW 0 0 32 VBottom 2
WINDOW 3 32 32 VTop 2
SYMATTR InstName C2
SYMATTR Value 16n
SYMBOL res 352 272 R0
SYMATTR InstName R2
SYMATTR Value 1k
TEXT -458 464 Left 2 !.ac dec 100 1 1meg
TEXT -456 -168 Left 2 ;Mitoitettiin RC_alipäästösuodatin\nSiten että kaikki 10kHz suuremmat\ntaajuudet suodattuivat\n \nvalittiin R = 1k => C = 16nF kaavasta\nR = Xc
TEXT -456 32 Left 2 ;Toiminta varmistettiin simuloimalla:\n10kHz kohdalla vaimennusta oli -3dB.\n \nRC-piiri vaimentaa -20dB/dec ja\nsiirtää vaihetta maksimissaan -90 astetta
TEXT 208 160 Left 2 ;Tässä RC_ylipäästösuodatin
